%chk=C:\G09W\ethoxide\cycloheptadiene.chk
# opt freq hf/3-21g geom=connectivity

Title Card Required

0 1
 C                  0.83342725   -2.14285711    0.00000000
 C                  2.34821425   -2.14285711    0.00000000
 C                  2.95507525   -0.75705511    0.00000000
 C                  0.24816525   -1.77460711    1.34754000
 C                  2.49110625    0.10928089    1.15275500
 C                  0.00809625   -0.29227411    1.53956800
 C                  1.07600425    0.61730889    0.97034700
 H                  0.45353525   -1.44101711   -0.78751600
 H                  2.71572425   -0.24600711   -0.97034200
 H                  0.92602325   -2.14879611    2.16092400
 H                 -0.09281275   -0.09505911    2.64087400
 H                  2.70911425   -2.68812211   -0.91326200
 H                 -0.73323775   -2.30613911    1.47620700
 H                  3.18251725    0.99105789    1.23085500
 H                 -0.97322275   -0.01553011    1.06792700
 H                  0.98154725    1.61991889    1.46849000
 H                  0.87903425    0.78135389   -0.12303600

 1 2 2.0 4 1.0 8 1.0
 2 3 1.0 12 1.0
 3 5 2.0 9 1.0
 4 6 1.0 10 1.0 13 1.0
 5 7 1.0 14 1.0
 6 7 1.0 11 1.0 15 1.0
 7 16 1.0 17 1.0
 8
 9
 10
 11
 12
 13
 14
 15
 16
 17

