%chk=C:\G09W\ethoxide\cycloheptadienewater.chk
# rzindo=(nstates=20) scrf=(solvent=water) geom=connectivity

Title Card Required

0 1
 C                  0.41983100   -1.47327200   -0.26585900
 C                  1.46521000   -0.66242400   -0.32436100
 C                  1.46513900    0.66263600    0.32426300
 C                 -0.81033700   -1.15680700    0.56225400
 C                  0.41954400    1.47339600    0.26588000
 C                 -1.67636400   -0.00025000   -0.00006000
 C                 -0.81063900    1.15676400   -0.56215500
 H                  0.44960300   -2.42012600   -0.77279100
 H                  2.35457200    0.95955100    0.85060200
 H                 -0.47877400   -0.86718900    1.55356400
 H                 -2.31762100    0.36384500    0.79607700
 H                  2.35468100   -0.95926400   -0.85062500
 H                 -1.42449600   -2.04331800    0.66897300
 H                  0.44917600    2.42020800    0.77292200
 H                 -2.31726600   -0.36468100   -0.79635900
 H                 -1.42503200    2.04314500   -0.66849600
 H                 -0.47915700    0.86757500   -1.55364000

 1 2 2.0 4 1.0 8 1.0
 2 3 1.0 12 1.0
 3 5 2.0 9 1.0
 4 6 1.0 10 1.0 13 1.0
 5 7 1.0 14 1.0
 6 7 1.0 11 1.0 15 1.0
 7 16 1.0 17 1.0
 8
 9
 10
 11
 12
 13
 14
 15
 16
 17

