%chk=C:\G09W\ethoxide\cycloctadiene.chk
# opt freq hf/3-21g geom=connectivity

Title Card Required

0 1
 C                  0.33623580   -4.49860768   -0.00040500
 C                  1.85035280   -4.49860768   -0.00040500
 C                  0.96427180   -0.99216768   -0.00040500
 C                  2.50475480   -3.41588968    0.83764000
 C                  2.47838680   -0.99216268   -0.00032100
 C                  3.16964280   -2.33928568    0.00000000
 H                  2.21129880   -4.43316268   -1.06223700
 H                  1.75393580   -2.95729468    1.53179400
 H                  0.60327980   -1.05758068    1.06141400
 H                  2.81772480   -0.41211868    0.90096700
 H                 -0.00314720   -5.07871268   -0.90164300
 H                  0.62610380    0.01072532   -0.38042300
 H                  2.83940580   -0.42563568   -0.90177800
 H                  4.21613080   -2.18230768    0.38051000
 H                  3.27673880   -2.69025568   -1.06179600
 C                 -0.35501620   -3.15148768   -0.00075700
 H                 -1.40151920   -3.30846368   -0.38122200
 C                  0.30986780   -2.07489868   -0.83842700
 H                  1.06068480   -2.53351168   -1.53256800
 H                 -0.47329620   -1.59630468   -1.48643200

 1 2 1.0 11 1.0 16 2.0
 2 4 2.0 7 1.0
 3 5 1.0 9 1.0 12 1.0 18 1.0
 4 6 1.0 8 1.0
 5 6 1.0 10 1.0 13 1.0
 6 14 1.0 15 1.0
 7
 8
 9
 10
 11
 12
 13
 14
 15
 16 17 1.0 18 1.0
 17
 18 19 1.0 20 1.0
 19
 20

