%chk=C:\G09W\ethoxide\CYCLOPENTADIENEnone.chk
# rzindo=(nstates=20) geom=connectivity

Title Card Required

0 1
 C                 -0.74210800   -0.98338500   -0.00005200
 C                  0.74260800   -0.98304300    0.00012500
 C                  1.18149500    0.27182600   -0.00013200
 C                 -0.00031400    1.22660500   -0.00005600
 C                 -1.18162200    0.27122500    0.00002300
 H                 -1.34183200   -1.86834900    0.00029700
 H                  1.34274500   -1.86772700   -0.00054700
 H                  2.19996100    0.59586600    0.00037400
 H                 -0.00043600    1.86261900    0.88094700
 H                 -0.00052200    1.86350600   -0.88027300
 H                 -2.20026400    0.59472000   -0.00024700

 1 2 1.0 5 2.0 6 1.0
 2 3 2.0 7 1.0
 3 4 1.0 8 1.0
 4 5 1.0 9 1.0 10 1.0
 5 11 1.0
 6
 7
 8
 9
 10
 11

