%chk=C:\G09W\ethoxide\optfreqo.chk
# opt freq hf/3-21g geom=connectivity

Title Card Required

-1 1
 C                 -3.20535709    0.35714285    0.00000000
 H                 -2.84870266   -0.65166715    0.00000000
 H                 -2.84868425    0.86154104    0.87365150
 H                 -4.27535709    0.35715604    0.00000000
 C                 -2.69201487    1.08309913   -1.25740497
 H                 -3.04867073    2.09190862   -1.25740585
 C                 -3.20535502    0.35714009   -2.51480919
 H                 -4.27535502    0.35715251   -2.51481017
 H                 -2.84870010   -0.65166974   -2.51480731
 C                 -2.69201134    1.08309533   -3.77221416
 H                 -1.62201311    1.08477554   -3.77123563
 H                 -3.04708634    0.57756826   -4.64586404
 H                 -3.05026090    2.09133950   -3.77319392
 Br                -0.78201487    1.08307875   -1.25740365
 C                 -6.15382963    2.35707594   -1.09995866
 H                 -5.63789388    2.92002793   -0.35042858
 H                 -6.12298032    2.88748136   -2.02873119
 C                 -7.61948345    2.15540060   -0.67242394
 H                 -7.65038275    1.62329831    0.25537581
 H                 -8.09049870    3.10866817   -0.55273441
 H                 -8.13591238    1.59411030   -1.42286005
 O                 -5.52361530    1.08312934   -1.25740693

 1 2 1.0 3 1.0 4 1.0 5 1.0
 2
 3
 4
 5 6 1.0 7 1.0 14 1.0
 6
 7 8 1.0 9 1.0 10 1.0
 8
 9
 10 11 1.0 12 1.0 13 1.0
 11
 12
 13
 14
 15 16 1.0 17 1.0 18 1.0 22 1.0
 16
 17
 18 19 1.0 20 1.0 21 1.0
 19
 20
 21
 22

